CASO BASE.PWF
(
( Gravacao de .PWF - CART
( Versao do Anarede: 11.07.00
( Data e Hora da Gravacao: 03/07/2026 - 14:26:12                                                           
(
TITU
                                                                                
DBAR
(Num)OETGb(   nome   )Gl( V)( A)( Pg)( Qg)( Qn)( Qm)(Bc  )( Pl)( Ql)( Sh)Are(Vf)M(1)(2)(3)(4)(5)(6)(7)(8)(9)(10
    1 L2  Bar-1 Ger1    1000  0.230.435.63 122. 122.                       11000                                   
    2 L1  Bar-2 Ger2    1000-8.4 100.24.64  96.  96.                       11000                                   
    3 L  1Bar-3          989-6.8                                           11000                                   
    4 L  1Bar-4          984-13.                                           11000                                   
    5 L  1Bar-5 Car1     965-12.                            55.  27.       11000                                   
    6 L  1Bar-6 Car2     977-14.                            37.  18.       11000                                   
    7 L  1Bar-7 Car3     959-16.                            68.  45.       11000                                   
    8 L  1Bar-8 Car4     972-14.                            90.  35.       11000                                   
    9 L  1Bar-9 Car5     952-18.                            75.  28.       11000                                   
99999
DLIN
(De )d O d(Pa )NcEPM( R% )( X% )(Mvar)(Tap)(Tmn)(Tmx)(Phs)(Bc  )(Cn)(Ce)Ns(Cq)(1)(2)(3)(4)(5)(6)(7)(8)(9)(10
    1         3 1           5.34         1.             .3      300.300.  300.                                
    2         4 1           7.68         1.             .3      260.260.  260.                                
    3         5 3      1.7   9.2  15.8                          200.220.  200.                                
    3         8 1       1.   8.5  17.6                          200.220.  200.                                
    4         6 1      .85   7.2  14.9                          200.220.  200.                                
    4         7 1       .9   7.9  16.2                          200.220.  200.                                
    5         7 1      3.2  16.1  30.6                          200.220.  200.                                
    6         8 1      1.1   8.4  25.6                          200.220.  200.                                
    7         9 1     1.19 10.08  20.9                          200.220.  200.                                
    8         9 1      3.9   17.  35.8                          200.220.  200.                                
99999
DGLT
(G (Vmn) (Vmx) (Vmne (Vmxe
 0   .95  1.05   .95  1.05
99999
DGBT
(G ( kV)
 1  230.
 0  13.8
99999
FIM
